testData/tamu2000/pfcases_200_fullsys_test/texas2000_hr_4681_mod_23.raw
0  100.000 
THIS IS A SYNTHETIC POWER SYSTEM MODEL THAT DOES NOT REPRESE
DATA RESEARCH PROJECT AND CONTAINS NO CEII.
1001,  1,  0.000,  0.000,  0.000,  0.000,  1,  1.01416,  -62.7171,  'ODESSA 2',  115.00,  9
1002,  1,  0.000,  0.000,  0.000,  0.000,  1,  1.02691,  -64.8232,  'PRESIDIO',  115.00,  9
1003,  1,  0.000,  0.000,  0.000,  0.000,  1,  1.02709,  -54.8708,  'O DONNEL',  115.00,  9
1004,  2,  0.000,  0.000,  0.000,  0.000,  1,  1.02939,  -54.8380,  'O DONNEL',  230.00,  9
1005,  1,  0.000,  0.000,  0.000,  0.000,  1,  1.01579,  -58.9853,  'BIG SPRI',  115.00,  9
1006,  1,  -9.259,  4.940,  0.000,  0.000,  1,  1.01055,  -58.2776,  'BIG SPRI',  13.800,  9
1007,  1,  0.000,  3.999,  0.000,  0.000,  1,  1.02999,  -64.0958,  'VAN HORN',  115.00,  9
1008,  1,  0.000,  0.000,  0.000,  0.000,  1,  1.02129,  -59.4594,  'IRAAN 2 ',  115.00,  9
1009,  1,  -22.263,  11.880,  0.000,  0.000,  1,  1.01093,  -58.2592,  'IRAAN 2 ',  13.800,  9
1010,  1,  0.003,  6.194,  0.000,  0.000,  1,  1.02999,  -64.1716,  'PRESIDIO',  115.00,  9
1011,  2,  0.000,  0.000,  0.000,  0.000,  1,  1.02999,  -64.1716,  'PRESIDIO',  22.000,  9
1012,  1,  0.035,  -8.040,  0.000,  0.000,  1,  1.02997,  -68.4685,  'SANDERSO',  115.00,  9
1013,  1,  0.000,  0.000,  0.000,  0.000,  1,  1.01293,  -60.2960,  'MONAHANS',  115.00,  9
1014,  1,  0.000,  0.000,  0.000,  0.000,  1,  1.01845,  -59.0973,  'GRANDFAL',  115.00,  9
1015,  1,  0.000,  0.000,  0.000,  0.000,  1,  1.03342,  -64.6611,  'MARFA 0 ',  115.00,  9
1016,  1,  -0.000,  -31.451,  0.000,  0.000,  1,  1.02390,  -60.9122,  'GARDEN C',  115.00,  9
1017,  1,  0.000,  0.000,  0.000,  0.000,  1,  1.00465,  -63.7221,  'ODESSA 4',  115.00,  9
1018,  1,  0.000,  0.000,  0.000,  0.000,  1,  1.00233,  -64.4336,  'NOTREES ',  115.00,  9
1019,  1,  0.003,  -130.705,  0.000,  0.000,  1,  1.03000,  -62.7004,  'MIDLAND ',  115.00,  9
1020,  1,  -0.000,  -51.314,  0.000,  0.000,  1,  1.03000,  -58.8413,  'BIG SPRI',  115.00,  9
1021,  2,  0.000,  0.000,  0.000,  0.000,  1,  1.00861,  -56.4689,  'BIG SPRI',  13.800,  9
1022,  1,  0.000,  0.000,  0.000,  0.000,  1,  1.02782,  -54.3857,  'O DONNEL',  115.00,  9
1023,  2,  0.000,  0.000,  0.000,  0.000,  1,  1.01000,  -51.1904,  'O DONNEL',  13.800,  9
1024,  1,  0.000,  0.000,  0.000,  0.000,  1,  1.00220,  -64.9914,  'ODESSA 6',  115.00,  9
1025,  1,  0.000,  0.000,  0.000,  0.000,  1,  1.02316,  -58.3815,  'BIG SPRI',  115.00,  9
1026,  2,  0.000,  0.000,  0.000,  0.000,  1,  1.00331,  -55.8188,  'BIG SPRI',  13.800,  9
1027,  1,  0.000,  -48.053,  0.000,  0.000,  1,  1.03000,  -63.9814,  'MIDLAND ',  115.00,  9
1028,  1,  0.000,  0.000,  0.000,  0.000,  1,  1.03226,  -54.5663,  'COAHOMA ',  115.00,  9
1029,  1,  -0.000,  -41.414,  0.000,  0.000,  1,  1.01753,  -65.8654,  'MIDLAND ',  115.00,  9
1030,  1,  0.000,  0.000,  0.000,  0.000,  1,  1.02965,  -61.8252,  'ALPINE 0',  115.00,  9
1031,  1,  0.000,  0.000,  0.000,  0.000,  1,  1.02416,  -62.5062,  'FORT DAV',  115.00,  9
1032,  1,  0.000,  0.000,  0.000,  0.000,  1,  1.01196,  -59.6970,  'MCCAMEY ',  115.00,  9
1033,  2,  0.000,  0.000,  0.000,  0.000,  1,  1.00917,  -59.9569,  'MCCAMEY ',  230.00,  9
1034,  1,  0.000,  0.000,  0.000,  0.000,  1,  1.00937,  -59.1229,  'BIG SPRI',  115.00,  9
1035,  1,  -24.289,  12.361,  0.000,  0.000,  1,  0.99971,  -57.9204,  'BIG SPRI',  13.800,  9
1036,  1,  0.000,  0.000,  0.000,  0.000,  1,  1.00405,  -60.4490,  'CRANE 0 ',  115.00,  9
1037,  1,  0.000,  0.000,  0.000,  0.000,  1,  1.00391,  -63.7501,  'ODESSA 5',  115.00,  9
1038,  1,  0.000,  0.000,  0.000,  0.000,  1,  1.01825,  -58.9232,  'FORT STO',  115.00,  9
1039,  2,  0.000,  0.000,  0.000,  0.000,  1,  1.00021,  -56.9748,  'FORT STO',  22.000,  9
1040,  1,  0.000,  0.000,  0.000,  0.000,  1,  1.01311,  -64.5428,  'ANDREWS ',  115.00,  9
1041,  1,  0.000,  0.000,  0.000,  0.000,  1,  1.00813,  -58.4994,  'FORSAN 0',  115.00,  9
1042,  2,  0.000,  0.000,  0.000,  0.000,  1,  1.00000,  -55.9743,  'FORSAN 1',  13.800,  9
1043,  1,  -15.869,  6.642,  0.000,  0.000,  1,  0.99986,  -57.3295,  'FORSAN 2',  13.800,  9
1044,  1,  0.000,  0.000,  0.000,  0.000,  1,  1.02614,  -64.3275,  'BIG LAKE',  115.00,  9
1045,  1,  0.000,  0.000,  0.000,  0.000,  1,  1.01372,  -63.8683,  'MIDLAND ',  115.00,  9
1046,  1,  0.068,  -1.815,  0.000,  0.000,  1,  1.02998,  -65.3062,  'OZONA 0 ',  115.00,  9
1047,  1,  0.000,  0.000,  0.000,  0.000,  1,  1.01072,  -58.2457,  'MONAHANS',  115.00,  9
1048,  2,  0.000,  0.000,  0.000,  0.000,  1,  1.00000,  -54.5719,  'MONAHANS',  18.000,  9
1049,  2,  0.000,  0.000,  0.000,  0.000,  1,  1.00000,  -51.7059,  'MONAHANS',  18.000,  9
1050,  2,  0.000,  0.000,  0.000,  0.000,  1,  1.01072,  -58.2457,  'MONAHANS',  18.000,  9
1051,  2,  0.000,  0.000,  0.000,  0.000,  1,  1.01072,  -58.2457,  'MONAHANS',  18.000,  9
1052,  2,  0.000,  0.000,  0.000,  0.000,  1,  1.01072,  -58.2457,  'MONAHANS',  18.000,  9
1053,  2,  0.000,  0.000,  0.000,  0.000,  1,  1.00944,  -57.9672,  'MONAHANS',  230.00,  9
1054,  1,  0.000,  0.000,  0.000,  0.000,  1,  1.01943,  -61.1528,  'STANTON ',  115.00,  9
1055,  1,  0.000,  0.000,  0.000,  0.000,  1,  1.02218,  -55.8036,  'ODONNELL',  115.00,  9
1056,  1,  0.001,  -49.502,  0.000,  0.000,  1,  1.03000,  -61.6306,  'LENORAH ',  115.00,  9
1057,  2,  0.000,  0.000,  0.000,  0.000,  1,  1.00743,  -58.7730,  'LENORAH ',  18.000,  9
1058,  1,  0.000,  0.000,  0.000,  0.000,  1,  1.02685,  -61.0410,  'IRAAN 3 ',  115.00,  9
1059,  2,  0.000,  0.000,  0.000,  0.000,  1,  1.02685,  -61.0410,  'IRAAN 3 ',  22.000,  9
1060,  2,  0.000,  0.000,  0.000,  0.000,  1,  1.02685,  -61.0410,  'IRAAN 3 ',  22.000,  9
1061,  1,  0.000,  0.000,  0.000,  0.000,  1,  1.01880,  -59.2362,  'BIG SPRI',  115.00,  9
1062,  2,  0.000,  0.000,  0.000,  0.000,  1,  1.01880,  -59.2362,  'BIG SPRI',  13.800,  9
1063,  2,  0.000,  0.000,  0.000,  0.000,  1,  1.01880,  -59.2362,  'BIG SPRI',  13.800,  9
1064,  1,  0.000,  0.000,  0.000,  0.000,  1,  1.00953,  -63.6535,  'ODESSA 3',  115.00,  9
1065,  1,  0.000,  0.000,  0.000,  0.000,  1,  1.01049,  -58.5389,  'BIG SPRI',  115.00,  9
1066,  2,  0.000,  0.000,  0.000,  0.000,  1,  1.00000,  -55.8259,  'BIG SPRI',  13.800,  9
1067,  1,  0.000,  0.000,  0.000,  0.000,  1,  1.00699,  -59.0379,  'BIG SPRI',  115.00,  9
1068,  1,  0.000,  0.000,  0.000,  0.000,  1,  0.99571,  -62.8199,  'MIDLAND ',  115.00,  9
1069,  1,  0.000,  0.000,  0.000,  0.000,  1,  1.02624,  -59.8533,  'IRAAN 1 ',  115.00,  9
1070,  2,  0.000,  0.000,  0.000,  0.000,  1,  1.04000,  -58.2559,  'IRAAN 1 ',  13.800,  9
1071,  1,  0.000,  0.000,  0.000,  0.000,  1,  1.01926,  -61.8342,  'ODESSA 1',  115.00,  9
1072,  3,  0.000,  0.000,  0.000,  0.000,  1,  1.01000,  -60.9847,  'ODESSA 1',  18.000,  9
1073,  2,  0.000,  0.000,  0.000,  0.000,  1,  1.01000,  -57.5818,  'ODESSA 1',  18.000,  9
1074,  2,  0.000,  0.000,  0.000,  0.000,  1,  1.01000,  -57.8098,  'ODESSA 1',  18.000,  9
1075,  2,  0.000,  0.000,  0.000,  0.000,  1,  1.01000,  -58.6144,  'ODESSA 1',  18.000,  9
1076,  2,  0.000,  0.000,  0.000,  0.000,  1,  1.01000,  -60.2346,  'ODESSA 1',  18.000,  9
1077,  2,  0.000,  0.000,  0.000,  0.000,  1,  1.01000,  -57.9348,  'ODESSA 1',  18.000,  9
1078,  2,  0.000,  0.000,  0.000,  0.000,  1,  1.01926,  -61.8342,  'ODESSA 1',  18.000,  9
1079,  2,  0.000,  0.000,  0.000,  0.000,  1,  1.05458,  -61.7008,  'ODESSA 1',  500.00,  9
1080,  2,  0.000,  0.000,  0.000,  0.000,  1,  1.01926,  -61.8342,  'ODESSA 1',  18.000,  9
1081,  2,  0.000,  0.000,  0.000,  0.000,  1,  1.01264,  -58.8007,  'ODESSA 1',  230.00,  9
1082,  2,  0.000,  0.000,  0.000,  0.000,  1,  1.01719,  -58.4317,  'FORT STO',  115.00,  9
1083,  1,  -0.001,  -27.487,  0.000,  0.000,  1,  1.02524,  -59.9027,  'FORT STO',  115.00,  9
1084,  2,  0.000,  0.000,  0.000,  0.000,  1,  1.03715,  -59.9591,  'BIG SPRI',  115.00,  9
1085,  1,  0.000,  0.000,  0.000,  0.000,  1,  1.01319,  -60.8156,  'KERMIT 0',  115.00,  9
1086,  1,  -0.001,  -31.237,  0.000,  0.000,  1,  1.02040,  -62.7781,  'PECOS 0 ',  115.00,  9
1087,  1,  0.000,  0.000,  0.000,  0.000,  1,  1.03033,  -63.2452,  'SHEFFIEL',  115.00,  9
1088,  1,  -20.241,  7.057,  0.000,  0.000,  1,  0.99937,  -60.5776,  'MCCAMEY ',  115.00,  9
1089,  1,  0.000,  0.000,  0.000,  0.000,  1,  1.01048,  -58.5792,  'LAMESA 0',  115.00,  9
1090,  1,  -19.431,  -29.143,  0.000,  0.000,  1,  1.01950,  -63.6472,  'GOLDSMIT',  115.00,  9
1091,  1,  0.000,  0.000,  0.000,  0.000,  1,  1.03658,  -60.3948,  'RALLS 2 ',  161.00,  9
2001,  1,  0.000,  0.000,  0.000,  0.000,  2,  1.01831,  -67.0464,  'PARIS 3 ',  161.00,  11
2002,  1,  0.000,  0.000,  0.000,  0.000,  2,  1.02724,  -64.5868,  'SAVOY 0 ',  500.00,  11
2003,  1,  0.000,  0.000,  0.000,  0.000,  2,  1.02773,  -66.2267,  'SAVOY 1 ',  161.00,  11
2004,  2,  0.000,  0.000,  0.000,  0.000,  2,  1.02111,  -63.6403,  'SAVOY 2 ',  13.800,  11
2005,  2,  0.000,  0.000,  0.000,  0.000,  2,  1.02012,  -63.4774,  'SAVOY 3 ',  13.800,  11
2006,  2,  0.000,  0.000,  0.000,  0.000,  2,  1.02000,  -62.8593,  'SAVOY 4 ',  13.800,  11
2007,  1,  0.000,  0.000,  0.000,  0.000,  2,  1.02235,  -66.4266,  'HONEY GR',  161.00,  11
2008,  1,  0.000,  0.000,  0.000,  0.000,  2,  1.01116,  -62.9744,  'MEMPHIS ',  161.00,  10
2009,  1,  0.002,  -56.457,  0.000,  0.000,  2,  1.03000,  -64.3491,  'IOWA PAR',  161.00,  11
2010,  1,  0.003,  -3.430,  0.000,  0.000,  2,  1.03000,  -63.5536,  'VERNON 2',  161.00,  10
2011,  1,  0.000,  0.000,  0.000,  0.000,  2,  1.04805,  -58.4735,  'PANHANDL',  500.00,  10
2012,  1,  0.000,  0.000,  0.000,  0.000,  2,  1.03618,  -58.4559,  'PANHANDL',  161.00,  10
2013,  1,  -18.060,  28.890,  0.000,  0.000,  2,  1.04006,  -58.1919,  'PANHANDL',  18.000,  10
2014,  1,  0.000,  0.000,  0.000,  0.000,  2,  1.00896,  -63.8156,  'CHILDRES',  161.00,  10
2015,  1,  0.000,  0.000,  0.000,  0.000,  2,  1.02614,  -68.3049,  'FORESTBU',  161.00,  11
2016,  1,  0.000,  0.000,  0.000,  0.000,  2,  1.02443,  -69.5152,  'SHERMAN ',  161.00,  11
2017,  1,  -0.000,  216.309,  0.000,  0.000,  2,  1.03997,  -57.4395,  'PANHANDL',  500.00,  10
2018,  1,  0.000,  0.000,  0.000,  0.000,  2,  1.04033,  -57.7938,  'PANHANDL',  161.00,  10
2019,  2,  0.000,  0.000,  0.000,  0.000,  2,  1.04000,  -56.5525,  'PANHANDL',  20.000,  10
2020,  1,  0.000,  0.000,  0.000,  0.000,  2,  1.02169,  -63.1276,  'WICHITA ',  161.00,  11
2021,  1,  0.000,  0.000,  0.000,  0.000,  2,  1.02946,  -64.4299,  'PARIS 2 ',  500.00,  11
2022,  1,  0.000,  0.000,  0.000,  0.000,  2,  1.02473,  -66.0146,  'PARIS 2 ',  161.00,  11
2023,  2,  0.000,  0.000,  0.000,  0.000,  2,  1.02946,  -64.4299,  'PARIS 2 ',  13.800,  11
2024,  2,  0.000,  0.000,  0.000,  0.000,  2,  1.02519,  -63.7680,  'PARIS 2 ',  13.800,  11
2025,  1,  0.000,  0.000,  0.000,  0.000,  2,  1.01970,  -62.6955,  'WICHITA ',  161.00,  11
2026,  1,  0.000,  0.000,  0.000,  0.000,  2,  1.03969,  -58.4076,  'WHEELER ',  161.00,  10
2027,  1,  0.000,  0.000,  0.000,  0.000,  2,  1.01798,  -67.4309,  'DEPORT 0',  161.00,  11
2028,  1,  0.000,  0.000,  0.000,  0.000,  2,  1.02245,  -64.1968,  'WICHITA ',  161.00,  11
2029,  1,  0.000,  0.000,  0.000,  0.000,  2,  1.01938,  -62.8906,  'SILVERTO',  161.00,  10
2030,  1,  0.000,  0.000,  0.000,  0.000,  2,  1.00944,  -68.9006,  'BONHAM 0',  161.00,  11
2031,  1,  0.000,  0.000,  0.000,  0.000,  2,  1.03986,  -60.4507,  'MATADOR ',  161.00,  10
2032,  1,  0.000,  0.000,  0.000,  0.000,  2,  1.02402,  -66.0654,  'ARTHUR C',  161.00,  11
2033,  1,  0.000,  0.000,  0.000,  0.000,  2,  1.00136,  -70.4759,  'LEONARD ',  161.00,  11
2034,  1,  0.000,  0.000,  0.000,  0.000,  2,  1.02681,  -69.1562,  'GORDONVI',  161.00,  11
2035,  1,  0.000,  0.000,  0.000,  0.000,  2,  1.03694,  -61.0635,  'KNOX CIT',  161.00,  10
2036,  1,  0.000,  0.000,  0.000,  0.000,  2,  1.02215,  -63.1687,  'WICHITA ',  161.00,  11
2037,  1,  0.000,  0.000,  0.000,  0.000,  2,  1.02923,  -68.3010,  'LINDSAY ',  161.00,  11
2038,  1,  0.000,  0.000,  0.000,  0.000,  2,  1.02430,  -66.9416,  'ECTOR 0 ',  161.00,  11
2039,  1,  0.000,  0.000,  0.000,  0.000,  2,  1.02043,  -67.7022,  'SUNSET 0',  161.00,  11
2040,  1,  0.000,  0.000,  0.000,  0.000,  2,  1.02370,  -66.5493,  'CLARKSVI',  161.00,  11
2041,  1,  0.000,  0.000,  0.000,  0.000,  2,  1.03291,  -57.7655,  'PANHANDL',  161.00,  10
2042,  1,  -10.464,  11.460,  0.000,  0.000,  2,  1.02432,  -57.3075,  'PANHANDL',  18.000,  10
2043,  1,  0.000,  0.000,  0.000,  0.000,  2,  1.02579,  -69.3206,  'SADLER 0',  161.00,  11
2044,  1,  0.000,  0.000,  0.000,  0.000,  2,  1.02796,  -68.0390,  'WHITESBO',  161.00,  11
2045,  1,  0.000,  0.000,  0.000,  0.000,  2,  1.02166,  -63.3660,  'SHEPPARD',  161.00,  11
2046,  1,  0.000,  0.000,  0.000,  0.000,  2,  1.02806,  -68.9456,  'POTTSBOR',  161.00,  11
2047,  1,  0.000,  0.000,  0.000,  0.000,  2,  1.02788,  -66.7048,  'BELLS 0 ',  161.00,  11
2048,  1,  0.000,  0.000,  0.000,  0.000,  2,  1.03930,  -61.1811,  'CROSBYTO',  161.00,  10
2049,  1,  0.000,  0.000,  0.000,  0.000,  2,  1.02759,  -64.0418,  'ELECTRA ',  161.00,  10
2050,  1,  0.000,  0.000,  0.000,  0.000,  2,  1.00221,  -70.0174,  'PATTONVI',  161.00,  11
2051,  1,  0.000,  0.000,  0.000,  0.000,  2,  1.02162,  -66.1515,  'HENRIETT',  161.00,  11
2052,  1,  0.000,  0.000,  0.000,  0.000,  2,  1.01486,  -61.7179,  'PANHANDL',  161.00,  10
2053,  1,  0.000,  0.000,  0.000,  0.000,  2,  1.02184,  -66.4298,  'BOWIE 0 ',  161.00,  11
2054,  1,  0.000,  0.000,  0.000,  0.000,  2,  1.02247,  -62.3185,  'WICHITA ',  500.00,  11
2055,  1,  0.000,  0.000,  0.000,  0.000,  2,  1.02217,  -62.7243,  'WICHITA ',  161.00,  11
2056,  2,  0.000,  0.000,  0.000,  0.000,  2,  1.02247,  -62.3185,  'WICHITA ',  18.000,  11
2057,  3,  0.000,  0.000,  0.000,  0.000,  2,  0.99000,  -62.2288,  'WICHITA ',  18.000,  11
2058,  1,  0.000,  0.000,  0.000,  0.000,  2,  1.03293,  -57.3975,  'WHITE DE',  161.00,  10
2059,  2,  0.000,  0.000,  0.000,  0.000,  2,  1.02288,  -55.2316,  'WHITE DE',  13.800,  10
2060,  1,  0.000,  0.000,  0.000,  0.000,  2,  1.00459,  -69.0388,  'ROXTON 0',  161.00,  11
2061,  1,  0.000,  0.000,  0.000,  0.000,  2,  1.02544,  -63.6433,  'VERNON 1',  161.00,  10
2062,  1,  -10.239,  13.956,  0.000,  0.000,  2,  1.01997,  -63.4010,  'VERNON 1',  18.000,  10
2063,  1,  -0.000,  -32.899,  0.000,  0.000,  2,  1.03000,  -68.6040,  'DENISON ',  161.00,  11
2064,  1,  0.000,  0.000,  0.000,  0.000,  2,  1.01466,  -67.4755,  'SUMNER 0',  161.00,  11
2065,  1,  -0.001,  -54.841,  0.000,  0.000,  2,  1.03000,  -69.0583,  'GAINESVI',  161.00,  11
2066,  1,  0.000,  0.000,  0.000,  0.000,  2,  1.03686,  -59.6352,  'ASPERMON',  161.00,  10
2067,  1,  0.000,  0.000,  0.000,  0.000,  2,  1.01770,  -62.5055,  'WICHITA ',  161.00,  11
2068,  1,  0.000,  0.000,  0.000,  0.000,  2,  1.01841,  -60.5590,  'WINDTHOR',  161.00,  11
2069,  1,  -0.000,  -39.112,  0.000,  0.000,  2,  1.03000,  -68.9772,  'HOWE 0  ',  161.00,  11
2070,  1,  0.000,  0.000,  0.000,  0.000,  2,  1.01984,  -60.0437,  'ARCHER 2',  161.00,  11
2071,  2,  0.000,  0.000,  0.000,  0.000,  2,  1.00764,  -57.5583,  'ARCHER 2',  18.000,  11
2072,  1,  0.000,  0.000,  0.000,  0.000,  2,  1.02929,  -67.8703,  'COLLINSV',  161.00,  11
2073,  1,  0.000,  0.000,  0.000,  0.000,  2,  1.03637,  -58.3451,  'JAYTON 0',  161.00,  10
2074,  1,  0.000,  0.000,  0.000,  0.000,  2,  1.02907,  -57.7094,  'JAYTON 1',  115.00,  10
2075,  1,  0.000,  0.000,  0.000,  0.000,  2,  1.02907,  -57.7094,  'JAYTON 2',  115.00,  10
2076,  1,  -8.096,  -4.440,  0.000,  0.000,  2,  1.03978,  -58.0352,  'JAYTON 3',  24.000,  10
2077,  1,  0.000,  0.000,  0.000,  0.000,  2,  1.02874,  -67.2613,  'MUENSTER',  161.00,  11
2078,  2,  0.000,  0.000,  0.000,  0.000,  2,  1.02000,  -64.9783,  'MUENSTER',  13.800,  11
2079,  1,  0.000,  0.000,  0.000,  0.000,  2,  1.03574,  -62.6780,  'PADUCAH ',  161.00,  10
2080,  1,  0.000,  0.000,  0.000,  0.000,  2,  1.02307,  -66.9074,  'NOCONA 0',  161.00,  11
2081,  1,  0.000,  0.000,  0.000,  0.000,  2,  1.01814,  -68.2194,  'DODD CIT',  161.00,  11
2082,  1,  0.000,  0.000,  0.000,  0.000,  2,  1.02321,  -63.5461,  'WICHITA ',  161.00,  11
2083,  2,  0.000,  0.000,  0.000,  0.000,  2,  1.02321,  -63.5461,  'WICHITA ',  20.000,  11
2084,  2,  0.000,  0.000,  0.000,  0.000,  2,  1.02321,  -63.5461,  'WICHITA ',  20.000,  11
2085,  2,  0.000,  0.000,  0.000,  0.000,  2,  1.02321,  -63.5461,  'WICHITA ',  20.000,  11
2086,  1,  0.000,  0.000,  0.000,  0.000,  2,  1.02186,  -67.4096,  'MONTAGUE',  161.00,  11
2087,  1,  0.000,  0.000,  0.000,  0.000,  2,  1.03764,  -59.5930,  'SPUR 0  ',  161.00,  10
2088,  1,  0.000,  0.000,  0.000,  0.000,  2,  1.01868,  -60.2686,  'ARCHER 1',  161.00,  11
2089,  2,  0.000,  0.000,  0.000,  0.000,  2,  1.00668,  -57.8318,  'ARCHER 1',  24.000,  11
2090,  1,  0.000,  0.000,  0.000,  0.000,  2,  1.01639,  -68.0165,  'ANNONA 0',  161.00,  11
2091,  1,  0.000,  0.000,  0.000,  0.000,  2,  1.03465,  -62.5657,  'SEYMOUR ',  161.00,  10
2092,  1,  0.000,  0.000,  0.000,  0.000,  2,  1.02830,  -67.6836,  'DENISON ',  161.00,  11
2093,  1,  0.000,  0.000,  0.000,  0.000,  2,  1.03867,  -58.1514,  'PANHANDL',  161.00,  10
2094,  2,  0.000,  0.000,  0.000,  0.000,  2,  1.03867,  -58.1514,  'PANHANDL',  13.800,  10
2095,  2,  0.000,  0.000,  0.000,  0.000,  2,  1.03867,  -58.1514,  'PANHANDL',  13.800,  10
2096,  1,  -0.000,  141.259,  0.000,  0.000,  2,  1.03000,  -56.2562,  'RALLS 1 ',  500.00,  10
2097,  1,  0.000,  0.000,  0.000,  0.000,  2,  1.03143,  -56.3156,  'RALLS 1 ',  230.00,  10
2098,  1,  0.000,  0.000,  0.000,  0.000,  2,  1.03760,  -59.7502,  'RALLS 1 ',  161.00,  10
2099,  1,  -5.234,  1.440,  0.000,  0.000,  2,  1.02953,  -56.1577,  'RALLS 1 ',  18.000,  10
2100,  2,  0.000,  0.000,  0.000,  0.000,  2,  1.02110,  -54.4358,  'RALLS 1 ',  18.000,  10
2101,  1,  0.000,  0.000,  0.000,  0.000,  2,  1.02835,  -65.0496,  'SHERMAN ',  500.00,  11
2102,  1,  0.000,  0.000,  0.000,  0.000,  2,  1.02920,  -66.0517,  'SHERMAN ',  161.00,  11
2103,  2,  0.000,  0.000,  0.000,  0.000,  2,  1.02482,  -64.4998,  'SHERMAN ',  20.000,  11
2104,  2,  0.000,  0.000,  0.000,  0.000,  2,  1.02368,  -64.3290,  'SHERMAN ',  20.000,  11
2105,  2,  0.000,  0.000,  0.000,  0.000,  2,  1.02105,  -63.9063,  'SHERMAN ',  20.000,  11
2106,  1,  0.000,  0.000,  0.000,  0.000,  2,  1.00443,  -70.1668,  'WHITEWRI',  161.00,  11
2107,  1,  0.000,  0.000,  0.000,  0.000,  2,  1.02702,  -66.5424,  'SHERMAN ',  161.00,  11
2108,  1,  0.000,  0.000,  0.000,  0.000,  2,  1.03715,  -63.0652,  'ROCHESTE',  161.00,  10
2109,  1,  0.000,  0.000,  0.000,  0.000,  2,  1.02618,  -64.4000,  'BURKBURN',  161.00,  11
...
 0 /End of Bus data, Begin Generator data
1004,  '1',  56.945,  -30.380,  44.940,  -30.380,  1.01000,  0,  253.200,  0.00000,  1.00000,  0.00000,  0.00000,  1.00000,  1,  100.0,  211.000,  63.300
1011,  '1',  -0.000,  0.000,  0.000,  0.000,  1.00000,  0,  12.000,  0.00000,  1.00000,  0.00000,  0.00000,  1.00000,  0,  100.0,  10.000,  3.000
1021,  '1',  53.843,  -28.730,  42.490,  -28.730,  1.00000,  0,  239.400,  0.00000,  1.00000,  0.00000,  0.00000,  1.00000,  1,  100.0,  199.500,  59.850
1023,  '1',  48.578,  -16.180,  38.340,  -25.920,  1.01000,  0,  216.000,  0.00000,  1.00000,  0.00000,  0.00000,  1.00000,  1,  100.0,  180.000,  54.000
1026,  '1',  33.519,  -17.880,  26.450,  -17.880,  1.00000,  0,  149.040,  0.00000,  1.00000,  0.00000,  0.00000,  1.00000,  1,  100.0,  124.200,  37.260
1033,  '1',  75.027,  -40.030,  59.210,  -40.030,  1.00000,  0,  333.600,  0.00000,  1.00000,  0.00000,  0.00000,  1.00000,  1,  100.0,  278.000,  83.400
1039,  '1',  39.809,  -21.240,  31.420,  -21.240,  1.00000,  0,  177.000,  0.00000,  1.00000,  0.00000,  0.00000,  1.00000,  1,  100.0,  147.500,  44.250
1042,  '1',  39.632,  -7.919,  25.960,  -17.550,  1.00000,  0,  146.280,  0.00000,  1.00000,  0.00000,  0.00000,  1.00000,  1,  100.0,  121.900,  36.570
1048,  '1',  97.560,  -18.118,  165.530,  -36.100,  1.00000,  0,  390.240,  0.00000,  0.10170,  0.00000,  0.00000,  1.00000,  1,  100.0,  325.200,  97.560
1049,  '1',  97.560,  -5.804,  165.530,  -36.100,  1.00000,  0,  390.240,  0.00000,  0.13490,  0.00000,  0.00000,  1.00000,  1,  100.0,  325.200,  97.560
1050,  '1',  0.000,  -6.604,  45.500,  -9.920,  1.00000,  0,  107.280,  0.00000,  0.27770,  0.00000,  0.00000,  1.00000,  0,  100.0,  89.400,  26.820
1051,  '1',  0.000,  -4.791,  45.500,  -9.920,  1.00000,  0,  107.280,  0.00000,  0.31740,  0.00000,  0.00000,  1.00000,  0,  100.0,  89.400,  26.820
1052,  '1',  0.000,  -9.920,  45.500,  -9.920,  1.00000,  0,  107.280,  0.00000,  0.27810,  0.00000,  0.00000,  1.00000,  0,  100.0,  89.400,  26.820
1053,  '1',  53.640,  -19.850,  91.010,  -19.850,  1.00000,  0,  214.560,  0.00000,  0.16870,  0.00000,  0.00000,  1.00000,  1,  100.0,  178.800,  53.640
1057,  '1',  39.015,  -17.280,  25.560,  -17.280,  1.00000,  0,  144.000,  0.00000,  1.00000,  0.00000,  0.00000,  1.00000,  1,  100.0,  120.000,  36.000
1059,  '1',  0.000,  0.000,  2.850,  -0.620,  1.04000,  0,  6.720,  0.00000,  0.22770,  0.00000,  0.00000,  1.00000,  0,  100.0,  5.600,  1.680
1060,  '1',  0.000,  0.000,  1.020,  -0.220,  1.04000,  0,  2.400,  0.00000,  0.16300,  0.00000,  0.00000,  1.00000,  0,  100.0,  2.000,  0.600
1062,  '1',  -0.000,  0.000,  0.000,  0.000,  1.01000,  0,  1.800,  0.00000,  1.00000,  0.00000,  0.00000,  1.00000,  0,  100.0,  1.500,  0.450
1063,  '1',  -0.000,  0.000,  0.000,  0.000,  1.01000,  0,  276.000,  0.00000,  1.00000,  0.00000,  0.00000,  1.00000,  0,  100.0,  230.000,  69.000
1066,  '1',  38.460,  -9.181,  30.350,  -20.520,  1.00000,  0,  171.000,  0.00000,  1.00000,  0.00000,  0.00000,  1.00000,  1,  100.0,  142.500,  42.750
1070,  '1',  43.318,  19.204,  34.190,  -23.110,  1.04000,  0,  192.600,  0.00000,  1.00000,  0.00000,  0.00000,  1.00000,  1,  100.0,  160.500,  48.150
1072,  '1',  17.114,  -11.859,  97.800,  -21.330,  1.01000,  0,  230.560,  0.00000,  0.30820,  0.00000,  0.00000,  1.00000,  1,  100.0,  192.130,  57.640
1073,  '1',  57.640,  -10.775,  97.800,  -21.330,  1.01000,  0,  230.560,  0.00000,  0.19480,  0.00000,  0.00000,  1.00000,  1,  100.0,  192.130,  57.640
1074,  '1',  57.640,  -8.130,  97.800,  -21.330,  1.01000,  0,  230.560,  0.00000,  0.20960,  0.00000,  0.00000,  1.00000,  1,  100.0,  192.130,  57.640
1075,  '1',  57.640,  -9.906,  97.800,  -21.330,  1.01000,  0,  230.560,  0.00000,  0.12370,  0.00000,  0.00000,  1.00000,  1,  100.0,  192.130,  57.640
1076,  '1',  57.640,  -19.769,  97.800,  -21.330,  1.01000,  0,  230.560,  0.00000,  0.10660,  0.00000,  0.00000,  1.00000,  1,  100.0,  192.130,  57.640
1077,  '1',  57.640,  -8.849,  97.800,  -21.330,  1.01000,  0,  230.560,  0.00000,  0.15380,  0.00000,  0.00000,  1.00000,  1,  100.0,  192.130,  57.640
1078,  '1',  0.000,  16.268,  48.610,  -10.600,  1.01000,  0,  114.600,  0.00000,  0.28520,  0.00000,  0.00000,  1.00000,  0,  100.0,  95.500,  28.650
1079,  '1',  0.000,  -10.600,  48.610,  -10.600,  1.01000,  0,  114.600,  0.00000,  0.17260,  0.00000,  0.00000,  1.00000,  0,  100.0,  95.500,  28.650
1080,  '1',  0.000,  13.126,  48.610,  -10.600,  1.01000,  0,  114.600,  0.00000,  0.15430,  0.00000,  0.00000,  1.00000,  0,  100.0,  95.500,  28.650
1081,  '1',  85.950,  -31.800,  145.830,  -31.800,  1.01000,  0,  343.800,  0.00000,  0.14960,  0.00000,  0.00000,  1.00000,  1,  100.0,  286.500,  85.950
1082,  '1',  40.482,  -21.600,  31.950,  -21.600,  1.00000,  0,  180.000,  0.00000,  1.00000,  0.00000,  0.00000,  1.00000,  1,  100.0,  150.000,  45.000
1084,  '1',  31.169,  24.600,  24.600,  -16.630,  1.04000,  0,  138.600,  0.00000,  1.00000,  0.00000,  0.00000,  1.00000,  1,  100.0,  115.500,  34.650
2004,  '1',  117.540,  -43.490,  199.430,  -43.490,  1.02000,  0,  470.160,  0.00000,  0.10640,  0.00000,  0.00000,  1.00000,  1,  100.0,  391.800,  117.540
2005,  '1',  117.540,  -43.490,  199.430,  -43.490,  1.02000,  0,  470.160,  0.00000,  0.22750,  0.00000,  0.00000,  1.00000,  1,  100.0,  391.800,  117.540
2006,  '1',  117.540,  -27.369,  199.430,  -43.490,  1.02000,  0,  470.160,  0.00000,  0.20040,  0.00000,  0.00000,  1.00000,  1,  100.0,  391.800,  117.540
2019,  '1',  141.628,  -1.074,  46.430,  -31.390,  1.04000,  0,  261.600,  0.00000,  1.00000,  0.00000,  0.00000,  1.00000,  1,  100.0,  218.000,  65.400
2023,  '1',  0.000,  15.439,  42.420,  -9.250,  1.02000,  0,  100.000,  0.00000,  0.29440,  0.00000,  0.00000,  1.00000,  0,  100.0,  83.330,  25.000
2024,  '1',  50.000,  -18.500,  84.830,  -18.500,  1.02000,  0,  200.000,  0.00000,  0.15080,  0.00000,  0.00000,  1.00000,  1,  100.0,  166.670,  50.000
2056,  '1',  0.000,  0.000,  2.800,  -0.730,  0.99000,  0,  7.200,  0.00000,  0.24920,  0.00000,  0.00000,  1.00000,  0,  100.0,  6.000,  1.800
2057,  '1',  7.379,  -243.506,  335.520,  -87.840,  0.99000,  0,  864.000,  0.00000,  0.17700,  0.00000,  0.00000,  1.00000,  1,  100.0,  720.000,  216.000
2059,  '1',  38.980,  -11.520,  17.040,  -11.520,  1.00000,  0,  96.000,  0.00000,  1.00000,  0.00000,  0.00000,  1.00000,  1,  100.0,  80.000,  24.000
2071,  '1',  77.583,  -21.600,  31.950,  -21.600,  1.00000,  0,  180.000,  0.00000,  1.00000,  0.00000,  0.00000,  1.00000,  1,  100.0,  150.000,  45.000
2078,  '1',  58.190,  -12.948,  23.960,  -16.200,  1.02000,  0,  135.000,  0.00000,  1.00000,  0.00000,  0.00000,  1.00000,  1,  100.0,  112.500,  33.750
2083,  '1',  0.000,  10.080,  10.180,  -2.220,  1.02000,  0,  24.000,  0.00000,  0.16410,  0.00000,  0.00000,  1.00000,  0,  100.0,  20.000,  6.000
2084,  '1',  0.000,  0.000,  10.180,  -2.220,  1.02000,  0,  24.000,  0.00000,  0.23120,  0.00000,  0.00000,  1.00000,  0,  100.0,  20.000,  6.000
2085,  '1',  0.000,  0.000,  20.360,  -4.440,  1.02000,  0,  48.000,  0.00000,  0.22690,  0.00000,  0.00000,  1.00000,  0,  100.0,  40.000,  12.000
2089,  '1',  34.964,  -9.730,  14.400,  -9.730,  1.00000,  0,  81.120,  0.00000,  1.00000,  0.00000,  0.00000,  1.00000,  1,  100.0,  67.600,  20.280
2094,  '1',  -0.000,  -1.440,  2.130,  -1.440,  1.00000,  0,  12.000,  0.00000,  1.00000,  0.00000,  0.00000,  1.00000,  0,  100.0,  10.000,  3.000
2095,  '1',  -0.000,  -11.450,  16.930,  -11.450,  1.00000,  0,  95.400,  0.00000,  1.00000,  0.00000,  0.00000,  1.00000,  0,  100.0,  79.500,  23.850
2100,  '1',  78.509,  -21.600,  31.950,  -21.600,  1.02000,  0,  180.000,  0.00000,  1.00000,  0.00000,  0.00000,  1.00000,  1,  100.0,  150.000,  45.000
2103,  '1',  80.320,  -29.720,  136.280,  -29.720,  1.00000,  0,  321.280,  0.00000,  0.33430,  0.00000,  0.00000,  1.00000,  1,  100.0,  267.730,  80.320
2104,  '1',  80.320,  -29.720,  136.280,  -29.720,  1.00000,  0,  321.280,  0.00000,  0.31470,  0.00000,  0.00000,  1.00000,  1,  100.0,  267.730,  80.320
2105,  '1',  80.320,  -29.720,  136.280,  -29.720,  1.00000,  0,  321.280,  0.00000,  0.14160,  0.00000,  0.00000,  1.00000,  1,  100.0,  267.730,  80.320
2115,  '1',  55.410,  -20.500,  94.020,  -20.500,  1.00000,  0,  221.660,  0.00000,  0.14250,  0.00000,  0.00000,  1.00000,  1,  100.0,  184.720,  55.410
2116,  '1',  55.410,  -20.500,  94.020,  -20.500,  1.00000,  0,  221.660,  0.00000,  0.18690,  0.00000,  0.00000,  1.00000,  1,  100.0,  184.720,  55.410
2117,  '1',  55.410,  -20.500,  94.020,  -20.500,  1.00000,  0,  221.660,  0.00000,  0.32540,  0.00000,  0.00000,  1.00000,  1,  100.0,  184.720,  55.410
2118,  '1',  55.410,  -20.500,  94.020,  -20.500,  1.00000,  0,  221.660,  0.00000,  0.10610,  0.00000,  0.00000,  1.00000,  1,  100.0,  184.720,  55.410
2119,  '1',  55.410,  -20.500,  94.020,  -20.500,  1.00000,  0,  221.660,  0.00000,  0.13600,  0.00000,  0.00000,  1.00000,  1,  100.0,  184.720,  55.410
2120,  '1',  55.410,  -20.500,  94.020,  -20.500,  1.01000,  0,  221.660,  0.00000,  0.20680,  0.00000,  0.00000,  1.00000,  1,  100.0,  184.720,  55.410
2127,  '1',  57.399,  -41.560,  61.470,  -41.560,  1.04000,  0,  346.320,  0.00000,  1.00000,  0.00000,  0.00000,  1.00000,  1,  100.0,  288.600,  86.580
3017,  '1',  45.746,  -13.612,  36.100,  -24.410,  1.01000,  0,  203.400,  0.00000,  1.00000,  0.00000,  0.00000,  1.00000,  1,  100.0,  169.500,  50.850
3020,  '1',  40.482,  -2.471,  31.950,  -21.600,  1.03000,  0,  180.000,  0.00000,  1.00000,  0.00000,  0.00000,  1.00000,  1,  100.0,  150.000,  45.000
3028,  '1',  103.444,  -4.201,  42.600,  -28.800,  1.04000,  0,  240.000,  0.00000,  1.00000,  0.00000,  0.00000,  1.00000,  1,  100.0,  200.000,  60.000
3034,  '1',  35.218,  3.491,  27.800,  -18.790,  1.03000,  0,  156.600,  0.00000,  1.00000,  0.00000,  0.00000,  1.00000,  1,  100.0,  130.500,  39.150
3039,  '1',  56.405,  0.823,  44.520,  -30.100,  1.04000,  0,  250.800,  0.00000,  1.00000,  0.00000,  0.00000,  1.00000,  1,  100.0,  209.000,  62.700
3043,  '1',  0.000,  0.000,  0.660,  -0.140,  1.04000,  0,  1.560,  0.00000,  0.27280,  0.00000,  0.00000,  1.00000,  0,  100.0,  1.300,  0.390
3044,  '1',  0.000,  0.000,  45.500,  -9.920,  1.04000,  0,  107.280,  0.00000,  0.17000,  0.00000,  0.00000,  1.00000,  0,  100.0,  89.400,  26.820
3045,  '1',  134.100,  -0.806,  227.520,  -49.620,  1.04000,  0,  536.400,  0.00000,  0.14470,  0.00000,  0.00000,  1.00000,  1,  100.0,  447.000,  134.100
3048,  '1',  65.041,  -34.700,  51.330,  -34.700,  1.04000,  0,  289.200,  0.00000,  1.00000,  0.00000,  0.00000,  1.00000,  1,  100.0,  241.000,  72.300
3055,  '1',  66.167,  1.062,  52.220,  -35.300,  1.04000,  0,  294.200,  0.00000,  1.00000,  0.00000,  0.00000,  1.00000,  1,  100.0,  245.170,  73.550
3056,  '1',  66.167,  0.968,  52.220,  -35.300,  1.04000,  0,  294.200,  0.00000,  1.00000,  0.00000,  0.00000,  1.00000,  1,  100.0,  245.170,  73.550
3057,  '1',  66.167,  0.282,  52.220,  -35.300,  1.04000,  0,  294.200,  0.00000,  1.00000,  0.00000,  0.00000,  1.00000,  1,  100.0,  245.170,  73.550
3060,  '1',  44.699,  1.148,  35.280,  -23.850,  1.04000,  0,  198.750,  0.00000,  1.00000,  0.00000,  0.00000,  1.00000,  1,  100.0,  165.630,  49.690
3061,  '1',  44.699,  1.285,  35.280,  -23.850,  1.04000,  0,  198.750,  0.00000,  1.00000,  0.00000,  0.00000,  1.00000,  1,  100.0,  165.630,  49.690
3062,  '1',  44.699,  1.618,  35.280,  -23.850,  1.04000,  0,  198.750,  0.00000,  1.00000,  0.00000,  0.00000,  1.00000,  1,  100.0,  165.630,  49.690
3063,  '1',  44.699,  1.075,  35.280,  -23.850,  1.04000,  0,  198.750,  0.00000,  1.00000,  0.00000,  0.00000,  1.00000,  1,  100.0,  165.630,  49.690
3068,  '1',  40.482,  21.829,  31.950,  -21.600,  1.04000,  0,  180.000,  0.00000,  1.00000,  0.00000,  0.00000,  1.00000,  1,  100.0,  150.000,  45.000
3071,  '1',  45.934,  -24.510,  36.250,  -24.510,  1.00000,  0,  204.240,  0.00000,  1.00000,  0.00000,  0.00000,  1.00000,  1,  100.0,  170.200,  51.060
3081,  '1',  67.200,  -0.204,  53.040,  -35.860,  1.04000,  0,  298.800,  0.00000,  1.00000,  0.00000,  0.00000,  1.00000,  1,  100.0,  249.000,  74.700
3084,  '1',  62.745,  -33.480,  49.520,  -33.480,  1.00000,  0,  279.000,  0.00000,  1.00000,  0.00000,  0.00000,  1.00000,  1,  100.0,  232.500,  69.750
3092,  '1',  53.976,  1.473,  42.600,  -28.800,  1.04000,  0,  240.000,  0.00000,  1.00000,  0.00000,  0.00000,  1.00000,  1,  100.0,  200.000,  60.000
3095,  '1',  32.548,  7.450,  25.690,  -17.370,  1.04000,  0,  144.720,  0.00000,  1.00000,  0.00000,  0.00000,  1.00000,  1,  100.0,  120.600,  36.180
3098,  '1',  43.181,  2.567,  34.080,  -23.040,  1.04000,  0,  192.000,  0.00000,  1.00000,  0.00000,  0.00000,  1.00000,  1,  100.0,  160.000,  48.000
3106,  '1',  5.924,  -15.263,  62.477,  -2.690,  1.00000,  0,  65.880,  0.00000,  0.29220,  0.00000,  0.00000,  1.00000,  1,  100.0,  162.800,  0.000
3118,  '1',  32.386,  -17.280,  25.560,  -17.280,  1.00000,  0,  144.000,  0.00000,  1.00000,  0.00000,  0.00000,  1.00000,  1,  100.0,  120.000,  36.000
3120,  '1',  -0.000,  0.000,  0.000,  0.000,  1.00000,  0,  47.520,  0.00000,  1.00000,  0.00000,  0.00000,  1.00000,  0,  100.0,  39.600,  11.880
3122,  '1',  53.166,  -20.001,  41.960,  -28.370,  1.00000,  0,  236.400,  0.00000,  1.00000,  0.00000,  0.00000,  1.00000,  1,  100.0,  197.000,  59.100
3127,  '1',  36.434,  -19.440,  28.760,  -19.440,  1.00000,  0,  162.000,  0.00000,  1.00000,  0.00000,  0.00000,  1.00000,  1,  100.0,  135.000,  40.500
3129,  '1',  34.142,  -18.220,  26.940,  -18.220,  1.00000,  0,  151.800,  0.00000,  1.00000,  0.00000,  0.00000,  1.00000,  1,  100.0,  126.500,  37.950
3131,  '1',  30.766,  -12.114,  24.280,  -16.420,  1.02000,  0,  136.800,  0.00000,  1.00000,  0.00000,  0.00000,  1.00000,  1,  100.0,  114.000,  34.200
3133,  '1',  0.000,  26.110,  26.110,  -5.690,  1.04000,  0,  61.560,  0.00000,  0.10470,  0.00000,  0.00000,  1.00000,  0,  100.0,  51.300,  15.390
4010,  '1',  54.408,  4.370,  42.940,  -29.030,  1.03000,  0,  241.920,  0.00000,  1.00000,  0.00000,  0.00000,  1.00000,  1,  100.0,  201.600,  60.480
4026,  '1',  123.000,  5.744,  191.060,  -50.020,  1.03000,  0,  492.000,  0.00000,  0.32770,  0.00000,  0.00000,  1.00000,  1,  100.0,  410.000,  123.000
4030,  '1',  315.225,  -28.381,  290.040,  -75.930,  1.01000,  0,  746.880,  0.00000,  0.27970,  0.00000,  0.00000,  1.00000,  1,  100.0,  622.400,  186.720
4050,  '1',  53.976,  -28.800,  42.600,  -28.800,  1.00000,  0,  240.000,  0.00000,  1.00000,  0.00000,  0.00000,  1.00000,  1,  100.0,  200.000,  60.000
4052,  '1',  0.000,  22.500,  22.500,  -4.910,  1.04000,  0,  53.040,  0.00000,  0.28510,  0.00000,  0.00000,  1.00000,  0,  100.0,  44.200,  13.260
4058,  '1',  43.200,  7.404,  73.300,  -15.980,  1.03000,  0,  172.800,  0.00000,  0.13700,  0.00000,  0.00000,  1.00000,  1,  100.0,  144.000,  43.200
4059,  '1',  43.200,  8.043,  73.300,  -15.980,  1.03000,  0,  172.800,  0.00000,  0.15140,  0.00000,  0.00000,  1.00000,  1,  100.0,  144.000,  43.200
4060,  '1',  43.200,  5.121,  73.300,  -15.980,  1.03000,  0,  172.800,  0.00000,  0.13940,  0.00000,  0.00000,  1.00000,  1,  100.0,  144.000,  43.200
4061,  '1',  51.700,  7.412,  87.720,  -19.130,  1.03000,  0,  206.800,  0.00000,  0.21560,  0.00000,  0.00000,  1.00000,  1,  100.0,  172.330,  51.700
4062,  '1',  51.700,  5.253,  87.720,  -19.130,  1.03000,  0,  206.800,  0.00000,  0.25930,  0.00000,  0.00000,  1.00000,  1,  100.0,  172.330,  51.700
4063,  '1',  51.700,  7.944,  87.720,  -19.130,  1.03000,  0,  206.800,  0.00000,  0.14410,  0.00000,  0.00000,  1.00000,  1,  100.0,  172.330,  51.700
4065,  '1',  0.000,  13.408,  23.920,  -5.220,  1.02000,  0,  56.400,  0.00000,  0.15920,  0.00000,  0.00000,  1.00000,  0,  100.0,  47.000,  14.100
4075,  '1',  0.000,  0.000,  89.750,  -19.570,  1.03000,  0,  211.600,  0.00000,  0.11980,  0.00000,  0.00000,  1.00000,  0,  100.0,  176.330,  52.900
4076,  '1',  0.000,  23.562,  89.750,  -19.570,  1.03000,  0,  211.600,  0.00000,  0.13140,  0.00000,  0.00000,  1.00000,  0,  100.0,  176.330,  52.900
4077,  '1',  0.000,  17.974,  89.750,  -19.570,  1.03000,  0,  211.600,  0.00000,  0.23730,  0.00000,  0.00000,  1.00000,  0,  100.0,  176.330,  52.900
4082,  '1',  141.170,  14.548,  123.890,  -27.020,  1.04000,  0,  292.080,  0.00000,  0.13810,  0.00000,  0.00000,  1.00000,  1,  100.0,  243.400,  73.020
4083,  '1',  141.170,  15.327,  123.890,  -27.020,  1.04000,  0,  292.080,  0.00000,  0.15700,  0.00000,  0.00000,  1.00000,  1,  100.0,  243.400,  73.020
4084,  '1',  141.170,  26.574,  123.890,  -27.020,  1.04000,  0,  292.080,  0.00000,  0.19110,  0.00000,  0.00000,  1.00000,  1,  100.0,  243.400,  73.020
4085,  '1',  204.160,  29.920,  179.170,  -39.070,  1.04000,  0,  422.400,  0.00000,  0.31920,  0.00000,  0.00000,  1.00000,  1,  100.0,  352.000,  105.600
4090,  '1',  0.000,  0.000,  0.650,  -0.170,  1.01000,  0,  1.680,  0.00000,  0.23450,  0.00000,  0.00000,  1.00000,  0,  100.0,  1.400,  0.420
4091,  '1',  0.000,  2.447,  10.950,  -2.870,  1.01000,  0,  28.200,  0.00000,  0.13620,  0.00000,  0.00000,  1.00000,  0,  100.0,  23.500,  7.050
4093,  '1',  0.000,  1.299,  13.050,  -3.420,  1.01000,  0,  33.600,  0.00000,  0.12560,  0.00000,  0.00000,  1.00000,  0,  100.0,  28.000,  8.400
4094,  '1',  0.000,  4.863,  13.050,  -3.420,  1.01000,  0,  33.600,  0.00000,  0.35660,  0.00000,  0.00000,  1.00000,  0,  100.0,  28.000,  8.400
4095,  '1',  0.000,  2.145,  13.050,  -3.420,  1.01000,  0,  33.600,  0.00000,  0.24030,  0.00000,  0.00000,  1.00000,  0,  100.0,  28.000,  8.400
4096,  '1',  0.000,  0.000,  13.050,  -3.420,  1.01000,  0,  33.600,  0.00000,  0.23980,  0.00000,  0.00000,  1.00000,  0,  100.0,  28.000,  8.400
4097,  '1',  0.000,  1.867,  13.050,  -3.420,  1.01000,  0,  33.600,  0.00000,  0.22170,  0.00000,  0.00000,  1.00000,  0,  100.0,  28.000,  8.400
4098,  '1',  0.000,  0.000,  13.050,  -3.420,  1.01000,  0,  33.600,  0.00000,  0.24690,  0.00000,  0.00000,  1.00000,  0,  100.0,  28.000,  8.400
4105,  '1',  93.099,  -13.171,  38.340,  -25.920,  1.01000,  0,  216.000,  0.00000,  1.00000,  0.00000,  0.00000,  1.00000,  1,  100.0,  180.000,  54.000
4115,  '1',  39.540,  20.767,  67.090,  -14.630,  1.04000,  0,  158.160,  0.00000,  0.11310,  0.00000,  0.00000,  1.00000,  1,  100.0,  131.800,  39.540
4116,  '1',  39.540,  19.353,  67.090,  -14.630,  1.04000,  0,  158.160,  0.00000,  0.15150,  0.00000,  0.00000,  1.00000,  1,  100.0,  131.800,  39.540
4133,  '1',  0.000,  0.000,  17.100,  -3.730,  1.00000,  0,  40.320,  0.00000,  0.22730,  0.00000,  0.00000,  1.00000,  0,  100.0,  33.600,  10.080
4134,  '1',  0.000,  -3.730,  17.100,  -3.730,  1.00000,  0,  40.320,  0.00000,  0.18000,  0.00000,  0.00000,  1.00000,  0,  100.0,  33.600,  10.080
4135,  '1',  0.000,  -3.730,  17.100,  -3.730,  1.00000,  0,  40.320,  0.00000,  0.10840,  0.00000,  0.00000,  1.00000,  0,  100.0,  33.600,  10.080
4136,  '1',  0.000,  -3.730,  17.100,  -3.730,  1.00000,  0,  40.320,  0.00000,  0.18960,  0.00000,  0.00000,  1.00000,  0,  100.0,  33.600,  10.080
4137,  '1',  0.000,  0.000,  34.200,  -7.460,  1.00000,  0,  80.640,  0.00000,  0.27350,  0.00000,  0.00000,  1.00000,  0,  100.0,  67.200,  20.160
4138,  '1',  0.000,  0.000,  33.590,  -7.330,  1.00000,  0,  79.200,  0.00000,  0.16760,  0.00000,  0.00000,  1.00000,  0,  100.0,  66.000,  19.800
4142,  '1',  50.737,  20.236,  40.040,  -27.070,  1.04000,  0,  225.600,  0.00000,  1.00000,  0.00000,  0.00000,  1.00000,  1,  100.0,  188.000,  56.400
4153,  '1',  76.430,  44.042,  60.320,  -40.780,  1.04000,  0,  339.840,  0.00000,  1.00000,  0.00000,  0.00000,  1.00000,  1,  100.0,  283.200,  84.960
4160,  '1',  59.330,  22.032,  100.660,  -21.950,  1.03000,  0,  237.320,  0.00000,  0.18820,  0.00000,  0.00000,  1.00000,  1,  100.0,  197.770,  59.330
4161,  '1',  59.330,  9.472,  100.660,  -21.950,  1.03000,  0,  237.320,  0.00000,  0.12390,  0.00000,  0.00000,  1.00000,  1,  100.0,  197.770,  59.330
4162,  '1',  59.330,  8.332,  100.660,  -21.950,  1.03000,  0,  237.320,  0.00000,  0.17220,  0.00000,  0.00000,  1.00000,  1,  100.0,  197.770,  59.330
4163,  '1',  0.000,  0.000,  4.580,  -1.000,  1.03000,  0,  10.800,  0.00000,  0.23060,  0.00000,  0.00000,  1.00000,  0,  100.0,  9.000,  2.700
4166,  '1',  54.246,  -28.940,  42.810,  -28.940,  1.00000,  0,  241.200,  0.00000,  1.00000,  0.00000,  0.00000,  1.00000,  1,  100.0,  201.000,  60.300
4177,  '1',  40.482,  2.929,  31.950,  -21.600,  1.04000,  0,  180.000,  0.00000,  1.00000,  0.00000,  0.00000,  1.00000,  1,  100.0,  150.000,  45.000
4181,  '1',  103.492,  42.620,  42.620,  -28.810,  1.04000,  0,  240.120,  0.00000,  1.00000,  0.00000,  0.00000,  1.00000,  1,  100.0,  200.100,  60.030
4183,  '1',  54.786,  43.240,  43.240,  -29.230,  1.03000,  0,  243.600,  0.00000,  1.00000,  0.00000,  0.00000,  1.00000,  1,  100.0,  203.000,  60.900
4192,  '1',  629.970,  7.655,  688.320,  -150.120,  1.02000,  0,  1622.76,  0.00000,  0.14340,  0.00000,  0.00000,  1.00000,  1,  100.0,  1352.31,  405.690
4194,  '1',  54.408,  36.958,  42.940,  -29.030,  1.02000,  0,  241.920,  0.00000,  1.00000,  0.00000,  0.00000,  1.00000,  1,  100.0,  201.600,  60.480
5020,  '1',  62.066,  -17.280,  25.560,  -17.280,  1.00000,  0,  144.000,  0.00000,  1.00000,  0.00000,  0.00000,  1.00000,  1,  100.0,  120.000,  36.000
5023,  '1',  0.000,  0.000,  2.440,  -0.530,  1.04000,  0,  5.760,  0.00000,  0.15290,  0.00000,  0.00000,  1.00000,  0,  100.0,  4.800,  1.440
5035,  '1',  0.000,  0.000,  2.140,  -0.470,  1.02000,  0,  5.040,  0.00000,  0.14180,  0.00000,  0.00000,  1.00000,  0,  100.0,  4.200,  1.260
5036,  '1',  0.000,  3.260,  3.260,  -0.710,  1.02000,  0,  7.680,  0.00000,  0.14370,  0.00000,  0.00000,  1.00000,  0,  100.0,  6.400,  1.920
5037,  '1',  222.100,  -34.240,  157.010,  -34.240,  1.02000,  0,  370.160,  0.00000,  0.29910,  0.00000,  0.00000,  1.00000,  1,  100.0,  308.470,  92.540
5038,  '1',  222.100,  -34.240,  157.010,  -34.240,  1.02000,  0,  370.160,  0.00000,  0.12330,  0.00000,  0.00000,  1.00000,  1,  100.0,  308.470,  92.540
5039,  '1',  222.100,  -34.240,  157.010,  -34.240,  1.02000,  0,  370.160,  0.00000,  0.21470,  0.00000,  0.00000,  1.00000,  1,  100.0,  308.470,  92.540
5040,  '1',  222.100,  -34.240,  157.010,  -34.240,  1.02000,  0,  370.160,  0.00000,  0.19240,  0.00000,  0.00000,  1.00000,  1,  100.0,  308.470,  92.540
5041,  '1',  222.100,  -34.240,  157.010,  -34.240,  1.02000,  0,  370.160,  0.00000,  0.11590,  0.00000,  0.00000,  1.00000,  1,  100.0,  308.470,  92.540
5042,  '1',  222.100,  -34.240,  157.010,  -34.240,  1.02000,  0,  370.160,  0.00000,  0.19130,  0.00000,  0.00000,  1.00000,  1,  100.0,  308.470,  92.540
5051,  '1',  0.000,  43.110,  43.110,  -9.400,  1.02000,  0,  101.640,  0.00000,  0.12480,  0.00000,  0.00000,  1.00000,  0,  100.0,  84.700,  25.410
5057,  '1',  184.050,  -35.230,  161.530,  -35.230,  1.00000,  0,  380.820,  0.00000,  0.19130,  0.00000,  0.00000,  1.00000,  1,  100.0,  317.350,  95.200
5058,  '1',  184.060,  -35.230,  161.530,  -35.230,  1.00000,  0,  380.820,  0.00000,  0.29820,  0.00000,  0.00000,  1.00000,  1,  100.0,  317.350,  95.200
5065,  '1',  0.000,  5.400,  5.400,  -1.180,  1.03000,  0,  12.720,  0.00000,  0.13710,  0.00000,  0.00000,  1.00000,  0,  100.0,  10.600,  3.180
5066,  '1',  0.000,  0.920,  0.920,  -0.200,  1.03000,  0,  2.160,  0.00000,  0.13100,  0.00000,  0.00000,  1.00000,  0,  100.0,  1.800,  0.540
5067,  '1',  254.200,  -21.068,  223.080,  -48.650,  1.03000,  0,  525.920,  0.00000,  0.32610,  0.00000,  0.00000,  1.00000,  1,  100.0,  438.270,  131.480
5068,  '1',  254.200,  -21.087,  223.080,  -48.650,  1.03000,  0,  525.920,  0.00000,  0.11690,  0.00000,  0.00000,  1.00000,  1,  100.0,  438.270,  131.480
5069,  '1',  254.200,  -20.243,  223.080,  -48.650,  1.03000,  0,  525.920,  0.00000,  0.10560,  0.00000,  0.00000,  1.00000,  1,  100.0,  438.270,  131.480
5107,  '1',  0.000,  0.000,  2.660,  -0.700,  1.04000,  0,  6.840,  0.00000,  0.27550,  0.00000,  0.00000,  1.00000,  0,  100.0,  5.700,  1.710
5166,  '1',  37.950,  14.800,  64.390,  -14.040,  1.04000,  0,  151.800,  0.00000,  0.13910,  0.00000,  0.00000,  1.00000,  1,  100.0,  126.500,  37.950
5167,  '1',  0.000,  0.810,  0.810,  -0.180,  1.04000,  0,  1.920,  0.00000,  0.10670,  0.00000,  0.00000,  1.00000,  0,  100.0,  1.600,  0.480
5170,  '1',  31.033,  -8.640,  12.780,  -8.640,  1.00000,  0,  72.000,  0.00000,  1.00000,  0.00000,  0.00000,  1.00000,  1,  100.0,  60.000,  18.000
5198,  '1',  77.583,  -21.600,  31.950,  -21.600,  1.00000,  0,  180.000,  0.00000,  1.00000,  0.00000,  0.00000,  1.00000,  1,  100.0,  150.000,  45.000
5206,  '1',  144.230,  -27.600,  126.570,  -27.600,  1.01000,  0,  298.400,  0.00000,  0.11980,  0.00000,  0.00000,  1.00000,  1,  100.0,  248.670,  74.600
5207,  '1',  144.230,  -27.600,  126.570,  -27.600,  1.01000,  0,  298.400,  0.00000,  0.18090,  0.00000,  0.00000,  1.00000,  1,  100.0,  248.670,  74.600
5208,  '1',  144.230,  -27.600,  126.570,  -27.600,  1.01000,  0,  298.400,  0.00000,  0.10560,  0.00000,  0.00000,  1.00000,  1,  100.0,  248.670,  74.600
5238,  '1',  116.374,  -32.400,  47.930,  -32.400,  1.00000,  0,  270.000,  0.00000,  1.00000,  0.00000,  0.00000,  1.00000,  1,  100.0,  225.000,  67.500
5243,  '1',  77.583,  -21.600,  31.950,  -21.600,  1.00000,  0,  180.000,  0.00000,  1.00000,  0.00000,  0.00000,  1.00000,  1,  100.0,  150.000,  45.000
5262,  '1',  1215.000,  -99.630,  447.120,  -99.630,  1.01000,  0,  1458.00,  0.00000,  0.26310,  0.00000,  0.00000,  1.00000,  1,  100.0,  1215.00,  364.500
5263,  '1',  1215.000,  -99.630,  447.120,  -99.630,  1.01000,  0,  1458.00,  0.00000,  0.16260,  0.00000,  0.00000,  1.00000,  1,  100.0,  1215.00,  364.500
5281,  '1',  80.320,  -29.720,  136.280,  -29.720,  1.00000,  0,  321.280,  0.00000,  0.10660,  0.00000,  0.00000,  1.00000,  1,  100.0,  267.730,  80.320
5282,  '1',  80.320,  -29.720,  136.280,  -29.720,  1.00000,  0,  321.280,  0.00000,  0.23940,  0.00000,  0.00000,  1.00000,  1,  100.0,  267.730,  80.320
5283,  '1',  80.320,  -29.720,  136.280,  -29.720,  1.00000,  0,  321.280,  0.00000,  0.10650,  0.00000,  0.00000,  1.00000,  1,  100.0,  267.730,  80.320
5297,  '1',  0.000,  0.000,  1.630,  -0.360,  1.04000,  0,  3.840,  0.00000,  0.19100,  0.00000,  0.00000,  1.00000,  0,  100.0,  3.200,  0.960
5298,  '1',  34.500,  53.659,  58.530,  -12.760,  1.04000,  0,  138.000,  0.00000,  0.13260,  0.00000,  0.00000,  1.00000,  1,  100.0,  115.000,  34.500
5299,  '1',  34.500,  25.931,  58.530,  -12.760,  1.04000,  0,  138.000,  0.00000,  0.32280,  0.00000,  0.00000,  1.00000,  1,  100.0,  115.000,  34.500
5300,  '1',  34.500,  31.297,  58.530,  -12.760,  1.04000,  0,  138.000,  0.00000,  0.21910,  0.00000,  0.00000,  1.00000,  1,  100.0,  115.000,  34.500
5301,  '1',  0.000,  42.090,  42.090,  -9.180,  1.04000,  0,  99.240,  0.00000,  0.19640,  0.00000,  0.00000,  1.00000,  0,  100.0,  82.700,  24.810
5302,  '1',  139.130,  32.397,  236.050,  -51.480,  1.04000,  0,  556.500,  0.00000,  0.13300,  0.00000,  0.00000,  1.00000,  1,  100.0,  463.750,  139.130
5303,  '1',  139.130,  43.873,  236.050,  -51.480,  1.04000,  0,  556.500,  0.00000,  0.17920,  0.00000,  0.00000,  1.00000,  1,  100.0,  463.750,  139.130
5319,  '1',  78.840,  -29.170,  133.770,  -29.170,  1.01000,  0,  315.360,  0.00000,  0.25070,  0.00000,  0.00000,  1.00000,  1,  100.0,  262.800,  78.840
5320,  '1',  78.840,  -29.170,  133.770,  -29.170,  1.01000,  0,  315.360,  0.00000,  0.28140,  0.00000,  0.00000,  1.00000,  1,  100.0,  262.800,  78.840
5321,  '1',  78.840,  -29.170,  133.770,  -29.170,  1.01000,  0,  315.360,  0.00000,  0.12810,  0.00000,  0.00000,  1.00000,  1,  100.0,  262.800,  78.840
5324,  '1',  204.530,  35.085,  144.590,  -31.530,  1.04000,  0,  340.880,  0.00000,  0.21670,  0.00000,  0.00000,  1.00000,  1,  100.0,  284.070,  85.220
5325,  '1',  204.530,  36.564,  144.590,  -31.530,  1.04000,  0,  340.880,  0.00000,  0.15030,  0.00000,  0.00000,  1.00000,  1,  100.0,  284.070,  85.220
5326,  '1',  204.530,  98.418,  144.590,  -31.530,  1.04000,  0,  340.880,  0.00000,  0.18810,  0.00000,  0.00000,  1.00000,  1,  100.0,  284.070,  85.220
5360,  '1',  263.616,  -157.686,  469.730,  -122.980,  1.01000,  0,  1209.60,  0.00000,  0.25510,  0.00000,  0.00000,  1.00000,  1,  100.0,  1008.00,  302.400
5363,  '1',  0.000,  -1.150,  5.290,  -1.150,  1.00000,  0,  12.480,  0.00000,  0.25820,  0.00000,  0.00000,  1.00000,  0,  100.0,  10.400,  3.120
5364,  '1',  123.730,  -23.680,  108.590,  -23.680,  1.00000,  0,  256.000,  0.00000,  0.13030,  0.00000,  0.00000,  1.00000,  1,  100.0,  213.330,  64.000
5365,  '1',  123.730,  -23.680,  108.590,  -23.680,  1.00000,  0,  256.000,  0.00000,  0.11650,  0.00000,  0.00000,  1.00000,  1,  100.0,  213.330,  64.000
5366,  '1',  123.730,  -23.680,  108.590,  -23.680,  1.00000,  0,  256.000,  0.00000,  0.15490,  0.00000,  0.00000,  1.00000,  1,  100.0,  213.330,  64.000
5367,  '1',  123.730,  -23.680,  108.590,  -23.680,  1.00000,  0,  256.000,  0.00000,  0.10020,  0.00000,  0.00000,  1.00000,  1,  100.0,  213.330,  64.000
5368,  '1',  123.730,  -23.680,  108.590,  -23.680,  1.00000,  0,  256.000,  0.00000,  0.36180,  0.00000,  0.00000,  1.00000,  1,  100.0,  213.330,  64.000
5369,  '1',  123.730,  -23.680,  108.590,  -23.680,  1.00000,  0,  256.000,  0.00000,  0.24440,  0.00000,  0.00000,  1.00000,  1,  100.0,  213.330,  64.000
5382,  '1',  121.220,  58.649,  106.380,  -23.200,  1.04000,  0,  250.800,  0.00000,  0.24770,  0.00000,  0.00000,  1.00000,  1,  100.0,  209.000,  62.700
5383,  '1',  121.220,  51.587,  106.380,  -23.200,  1.04000,  0,  250.800,  0.00000,  0.39820,  0.00000,  0.00000,  1.00000,  1,  100.0,  209.000,  62.700
5399,  '1',  85.651,  -23.850,  35.270,  -23.850,  1.04000,  0,  198.720,  0.00000,  1.00000,  0.00000,  0.00000,  1.00000,  1,  100.0,  165.600,  49.680
5403,  '1',  0.000,  45.500,  45.500,  -9.920,  1.03000,  0,  107.280,  0.00000,  0.19850,  0.00000,  0.00000,  1.00000,  0,  100.0,  89.400,  26.820
5404,  '1',  0.000,  45.500,  45.500,  -9.920,  1.03000,  0,  107.280,  0.00000,  0.13470,  0.00000,  0.00000,  1.00000,  0,  100.0,  89.400,  26.820
5405,  '1',  0.000,  45.500,  45.500,  -9.920,  1.03000,  0,  107.280,  0.00000,  0.14170,  0.00000,  0.00000,  1.00000,  0,  100.0,  89.400,  26.820
...
 0 /End of Generator data, Begin Branch data
1001,  1064,  '1',  0.00524,  0.03580,  0.00609,  221.00,  0.00,  0.00,  0.00000,  0.000,  0.00000,  0.00000,  0.00000,  0.00000,  1
1001,  1064,  '2',  0.00524,  0.03580,  0.00609,  221.00,  0.00,  0.00,  0.00000,  0.000,  0.00000,  0.00000,  0.00000,  0.00000,  1
1001,  1071,  '1',  0.00435,  0.02808,  0.00536,  221.00,  0.00,  0.00,  0.00000,  0.000,  0.00000,  0.00000,  0.00000,  0.00000,  1
1001,  1071,  '2',  0.00435,  0.02808,  0.00536,  221.00,  0.00,  0.00,  0.00000,  0.000,  0.00000,  0.00000,  0.00000,  0.00000,  1
1001,  11001,  '1',  0.00000,  0.04614,  0.00000,  26.01,  0.00,  0.00,  1.00000,  -1.095,  0.00000,  0.00000,  0.00000,  0.00000,  1
1002,  1007,  '1',  0.07776,  0.46693,  0.06336,  98.00,  0.00,  0.00,  0.00000,  0.000,  0.00000,  0.00000,  0.00000,  0.00000,  1
1002,  -1010,  '1',  0.05552,  0.13570,  0.01777,  98.00,  0.00,  0.00,  0.00000,  0.000,  0.00000,  0.00000,  0.00000,  0.00000,  1
1002,  11002,  '1',  0.00000,  0.08516,  0.00000,  14.09,  0.00,  0.00,  1.00000,  -1.131,  0.00000,  0.00000,  0.00000,  0.00000,  1
1004,  1003,  '1',  0.00450,  0.11582,  0.00000,  250.00,  0.00,  0.00,  1.00000,  0.000,  0.00000,  0.00000,  0.00000,  0.00000,  1
1003,  -1022,  '1',  0.00485,  0.02012,  0.00341,  221.00,  0.00,  0.00,  0.00000,  0.000,  0.00000,  0.00000,  0.00000,  0.00000,  1
1003,  -1055,  '1',  0.01574,  0.03782,  0.00513,  98.00,  0.00,  0.00,  0.00000,  0.000,  0.00000,  0.00000,  0.00000,  0.00000,  1
1004,  3133,  '1',  0.00420,  0.03000,  0.05500,  523.00,  0.00,  0.00,  0.00000,  0.000,  0.00000,  0.00000,  0.00000,  0.00000,  1
1006,  1005,  '1',  0.01300,  0.13000,  0.00000,  42.00,  0.00,  0.00,  1.00000,  0.000,  0.00000,  0.00000,  0.00000,  0.00000,  1
1005,  -1025,  '1',  0.01842,  0.08210,  0.01204,  149.00,  0.00,  0.00,  0.00000,  0.000,  0.00000,  0.00000,  0.00000,  0.00000,  1
1005,  1061,  '1',  0.00599,  0.02484,  0.00422,  221.00,  0.00,  0.00,  0.00000,  0.000,  0.00000,  0.00000,  0.00000,  0.00000,  1
1005,  -1067,  '1',  0.01711,  0.04181,  0.00548,  98.00,  0.00,  0.00,  0.00000,  0.000,  0.00000,  0.00000,  0.00000,  0.00000,  1
1007,  1015,  '1',  0.06224,  0.37375,  0.05072,  98.00,  0.00,  0.00,  0.00000,  0.000,  0.00000,  0.00000,  0.00000,  0.00000,  1
1007,  -1031,  '1',  0.04803,  0.27434,  0.04123,  98.00,  0.00,  0.00,  0.00000,  0.000,  0.00000,  0.00000,  0.00000,  0.00000,  1
1007,  11007,  '1',  0.00000,  0.21584,  0.00000,  5.56,  0.00,  0.00,  1.00000,  -1.119,  0.00000,  0.00000,  0.00000,  0.00000,  1
1009,  1008,  '1',  0.00455,  0.09471,  0.00000,  120.00,  0.00,  0.00,  1.00000,  0.000,  0.00000,  0.00000,  0.00000,  0.00000,  1
1008,  1032,  '1',  0.04501,  0.11002,  0.01441,  98.00,  0.00,  0.00,  0.00000,  0.000,  0.00000,  0.00000,  0.00000,  0.00000,  1
1008,  1069,  '1',  0.00830,  0.03628,  0.00553,  149.00,  0.00,  0.00,  0.00000,  0.000,  0.00000,  0.00000,  0.00000,  0.00000,  1
1011,  1010,  '1',  0.01300,  0.13000,  0.00000,  46.00,  0.00,  0.00,  1.00000,  0.000,  0.00000,  0.00000,  0.00000,  0.00000,  1
1010,  1015,  '1',  0.04703,  0.28243,  0.03833,  98.00,  0.00,  0.00,  0.00000,  0.000,  0.00000,  0.00000,  0.00000,  0.00000,  1
1010,  1030,  '1',  0.06160,  0.36990,  0.05020,  98.00,  0.00,  0.00,  0.00000,  0.000,  0.00000,  0.00000,  0.00000,  0.00000,  1
1012,  1087,  '1',  0.04934,  0.20469,  0.03473,  149.00,  0.00,  0.00,  0.00000,  0.000,  0.00000,  0.00000,  0.00000,  0.00000,  1
1012,  -3051,  '1',  0.05710,  0.24977,  0.03804,  149.00,  0.00,  0.00,  0.00000,  0.000,  0.00000,  0.00000,  0.00000,  0.00000,  1
1012,  11012,  '1',  0.00000,  0.53641,  0.00000,  2.24,  0.00,  0.00,  1.00000,  -1.195,  0.00000,  0.00000,  0.00000,  0.00000,  1
1013,  1031,  '1',  0.04509,  0.27078,  0.03675,  98.00,  0.00,  0.00,  0.00000,  0.000,  0.00000,  0.00000,  0.00000,  0.00000,  1
1013,  -1047,  '1',  0.00947,  0.06117,  0.01167,  221.00,  0.00,  0.00,  0.00000,  0.000,  0.00000,  0.00000,  0.00000,  0.00000,  1
1013,  -1086,  '1',  0.07900,  0.19311,  0.02529,  98.00,  0.00,  0.00,  0.00000,  0.000,  0.00000,  0.00000,  0.00000,  0.00000,  1
1013,  11013,  '1',  0.00000,  0.03793,  0.00000,  31.64,  0.00,  0.00,  1.00000,  -1.052,  0.00000,  0.00000,  0.00000,  0.00000,  1
1014,  1047,  '1',  0.03566,  0.14794,  0.02510,  149.00,  0.00,  0.00,  0.00000,  0.000,  0.00000,  0.00000,  0.00000,  0.00000,  1
1014,  1083,  '1',  0.04105,  0.18293,  0.02682,  149.00,  0.00,  0.00,  0.00000,  0.000,  0.00000,  0.00000,  0.00000,  0.00000,  1
1014,  11014,  '1',  0.00000,  0.56557,  0.00000,  2.12,  0.00,  0.00,  1.00000,  -1.031,  0.00000,  0.00000,  0.00000,  0.00000,  1
1015,  11015,  '1',  0.00000,  0.17474,  0.00000,  6.87,  0.00,  0.00,  1.00000,  -1.128,  0.00000,  0.00000,  0.00000,  0.00000,  1
1016,  1034,  '1',  0.01828,  0.10976,  0.01489,  98.00,  0.00,  0.00,  0.00000,  0.000,  0.00000,  0.00000,  0.00000,  0.00000,  1
1016,  -1068,  '1',  0.02773,  0.15837,  0.02380,  98.00,  0.00,  0.00,  0.00000,  0.000,  0.00000,  0.00000,  0.00000,  0.00000,  1
1016,  11016,  '1',  0.00000,  0.40317,  0.00000,  2.98,  0.00,  0.00,  1.00000,  -1.063,  0.00000,  0.00000,  0.00000,  0.00000,  1
1017,  -1018,  '1',  0.03227,  0.07887,  0.01033,  98.00,  0.00,  0.00,  0.00000,  0.000,  0.00000,  0.00000,  0.00000,  0.00000,  1
1017,  1029,  '1',  0.03244,  0.14188,  0.02161,  149.00,  0.00,  0.00,  0.00000,  0.000,  0.00000,  0.00000,  0.00000,  0.00000,  1
1017,  -1037,  '1',  0.00752,  0.03352,  0.00491,  221.00,  0.00,  0.00,  0.00000,  0.000,  0.00000,  0.00000,  0.00000,  0.00000,  1
1017,  -1047,  '1',  0.03600,  0.15600,  0.02400,  150.00,  0.00,  0.00,  0.00000,  0.000,  0.00000,  0.00000,  0.00000,  0.00000,  1
1017,  11017,  '1',  0.00000,  0.05085,  0.00000,  23.60,  0.00,  0.00,  1.00000,  -1.112,  0.00000,  0.00000,  0.00000,  0.00000,  1
1018,  -1024,  '1',  0.01094,  0.06572,  0.00892,  98.00,  0.00,  0.00,  0.00000,  0.000,  0.00000,  0.00000,  0.00000,  0.00000,  1
1018,  11018,  '1',  0.00000,  15.47155,  0.00000,  0.08,  0.00,  0.00,  1.00000,  -1.125,  0.00000,  0.00000,  0.00000,  0.00000,  1
1019,  1040,  '1',  0.04978,  0.20651,  0.03504,  149.00,  0.00,  0.00,  0.00000,  0.000,  0.00000,  0.00000,  0.00000,  0.00000,  1
1019,  1045,  '1',  0.01522,  0.03720,  0.00487,  221.00,  0.00,  0.00,  0.00000,  0.000,  0.00000,  0.00000,  0.00000,  0.00000,  1
1019,  1071,  '1',  0.00440,  0.02800,  0.00540,  225.00,  0.00,  0.00,  0.00000,  0.000,  0.00000,  0.00000,  0.00000,  0.00000,  1
1019,  -1071,  '2',  0.00440,  0.02800,  0.00540,  225.00,  0.00,  0.00,  0.00000,  0.000,  0.00000,  0.00000,  0.00000,  0.00000,  1
1019,  1084,  '1',  0.03000,  0.16000,  0.02500,  220.00,  0.00,  0.00,  0.00000,  0.000,  0.00000,  0.00000,  0.00000,  0.00000,  1
1019,  11019,  '1',  0.00000,  0.02022,  0.00000,  59.35,  0.00,  0.00,  1.00000,  -1.094,  0.00000,  0.00000,  0.00000,  0.00000,  1
1021,  1020,  '1',  0.00327,  0.07812,  0.00000,  250.00,  0.00,  0.00,  1.00000,  0.000,  0.00000,  0.00000,  0.00000,  0.00000,  1
1020,  -1025,  '1',  0.00828,  0.03434,  0.00583,  149.00,  0.00,  0.00,  0.00000,  0.000,  0.00000,  0.00000,  0.00000,  0.00000,  1
1020,  -1084,  '1',  0.01056,  0.06337,  0.00860,  221.00,  0.00,  0.00,  0.00000,  0.000,  0.00000,  0.00000,  0.00000,  0.00000,  1
1020,  3059,  '1',  0.01890,  0.06000,  0.00600,  300.00,  0.00,  0.00,  0.00000,  0.000,  0.00000,  0.00000,  0.00000,  0.00000,  1
1020,  3130,  '1',  0.00996,  0.06938,  0.01134,  221.00,  0.00,  0.00,  0.00000,  0.000,  0.00000,  0.00000,  0.00000,  0.00000,  1
1023,  1022,  '1',  0.00535,  0.11733,  0.00000,  250.00,  0.00,  0.00,  1.00000,  0.000,  0.00000,  0.00000,  0.00000,  0.00000,  1
1022,  1028,  '1',  0.01433,  0.09253,  0.01765,  221.00,  0.00,  0.00,  0.00000,  0.000,  0.00000,  0.00000,  0.00000,  0.00000,  1
1022,  1028,  '2',  0.01433,  0.09253,  0.01765,  221.00,  0.00,  0.00,  0.00000,  0.000,  0.00000,  0.00000,  0.00000,  0.00000,  1
1024,  1090,  '1',  0.01414,  0.06303,  0.00924,  149.00,  0.00,  0.00,  0.00000,  0.000,  0.00000,  0.00000,  0.00000,  0.00000,  1
1024,  11024,  '1',  0.00000,  0.01703,  0.00000,  70.45,  0.00,  0.00,  1.00000,  -1.134,  0.00000,  0.00000,  0.00000,  0.00000,  1
1026,  1025,  '1',  0.01300,  0.13000,  0.00000,  200.00,  0.00,  0.00,  1.00000,  0.000,  0.00000,  0.00000,  0.00000,  0.00000,  1
1027,  1045,  '1',  0.02505,  0.10957,  0.01669,  221.00,  0.00,  0.00,  0.00000,  0.000,  0.00000,  0.00000,  0.00000,  0.00000,  1
1027,  -1056,  '1',  0.03121,  0.07630,  0.00999,  250.00,  0.00,  0.00,  0.00000,  0.000,  0.00000,  0.00000,  0.00000,  0.00000,  1
1027,  11027,  '1',  0.00000,  0.02051,  0.00000,  58.51,  0.00,  0.00,  1.00000,  -1.117,  0.00000,  0.00000,  0.00000,  0.00000,  1
1028,  3109,  '1',  0.00428,  0.01875,  0.00286,  250.00,  0.00,  0.00,  0.00000,  0.000,  0.00000,  0.00000,  0.00000,  0.00000,  1
1028,  11028,  '1',  0.00000,  0.25061,  0.00000,  4.79,  0.00,  0.00,  1.00000,  -0.952,  0.00000,  0.00000,  0.00000,  0.00000,  1
1029,  1056,  '1',  0.02054,  0.11733,  0.01763,  221.00,  0.00,  0.00,  0.00000,  0.000,  0.00000,  0.00000,  0.00000,  0.00000,  1
1029,  11029,  '1',  0.00000,  0.01082,  0.00000,  110.90,  0.00,  0.00,  1.00000,  -1.150,  0.00000,  0.00000,  0.00000,  0.00000,  1
1030,  1038,  '1',  0.07404,  0.42285,  0.06354,  98.00,  0.00,  0.00,  0.00000,  0.000,  0.00000,  0.00000,  0.00000,  0.00000,  1
1030,  -1083,  '1',  0.06537,  0.37334,  0.05610,  98.00,  0.00,  0.00,  0.00000,  0.000,  0.00000,  0.00000,  0.00000,  0.00000,  1
1030,  11030,  '1',  0.00000,  0.10481,  0.00000,  11.45,  0.00,  0.00,  1.00000,  -1.079,  0.00000,  0.00000,  0.00000,  0.00000,  1
1031,  11031,  '1',  0.00000,  0.26456,  0.00000,  4.54,  0.00,  0.00,  1.00000,  -1.091,  0.00000,  0.00000,  0.00000,  0.00000,  1
1033,  1032,  '1',  0.00283,  0.06758,  0.00000,  170.00,  0.00,  0.00,  1.00000,  0.000,  0.00000,  0.00000,  0.00000,  0.00000,  1
1032,  1036,  '1',  0.01956,  0.11746,  0.01594,  98.00,  0.00,  0.00,  0.00000,  0.000,  0.00000,  0.00000,  0.00000,  0.00000,  1
1032,  -1038,  '1',  0.04500,  0.11000,  0.01500,  155.00,  0.00,  0.00,  0.00000,  0.000,  0.00000,  0.00000,  0.00000,  0.00000,  1
1033,  1081,  '1',  0.00300,  0.03100,  0.05900,  548.00,  0.00,  0.00,  0.00000,  0.000,  0.00000,  0.00000,  0.00000,  0.00000,  1
1033,  3050,  '1',  0.01390,  0.13600,  0.26200,  647.00,  0.00,  0.00,  0.00000,  0.000,  0.00000,  0.00000,  0.00000,  0.00000,  1
1035,  1034,  '1',  0.00438,  0.08496,  0.00000,  130.00,  0.00,  0.00,  1.00000,  0.000,  0.00000,  0.00000,  0.00000,  0.00000,  1
...